8
	Energy:      -4.7343653
C         -5.86977        0.55670       -0.00000
C         -4.35771        0.55670        0.00000
H         -6.25414        1.42864       -0.53759
H         -6.25414        0.58630        1.02392
H         -6.25414       -0.34483       -0.48633
H         -3.97334        1.45824        0.48633
H         -3.97334        0.52711       -1.02392
H         -3.97334       -0.31524        0.53759
