6
	Energy:      17.1042621
C         -6.36854       -0.43039        0.00000
C         -4.87333       -0.53970        0.00000
O         -6.89901        0.66853        0.00000
H         -6.90435       -1.39180       -0.00000
O         -4.34285       -1.63861       -0.00000
H         -4.33751        0.42171        0.00000
