6
	Energy:       8.2000964
C         -1.93763        0.33748        0.00000
C         -0.67584        0.77592        0.00000
H         -2.73239        0.91893       -0.45669
H         -2.20060       -0.61150        0.45669
H         -0.41287        1.72490       -0.45669
H          0.11892        0.19447        0.45669
